LAMMPS (12 Dec 2018)
# Configuration File to perform equilibrium
units		metal	# Definition of used Units
dimension	3	# Definition of used dimensions
processors	* * *	# Allowance to use the processors the simulations thinks to need
boundary	p p p	# Definition of boundary conditions

pair_style hybrid/overlay buck 3.0 sw coul/long 3.0
kspace_style ewald 0.0001 #how to calculate long-range coulomb interaction
# Definition of Attributes for the Atoms in the data-file, reading data
atom_style  full # molecular+charge
read_data   data.cement1   # Read specific data-file
  orthogonal box = (5.22493 7.96873 2.36146) to (28.7751 38.0313 43.6385)
  reading atoms ...
  1728 atoms
  reading velocities ...
  1728 velocities

# interaction styles (Here to add)
pair_coeff 1 1 buck 4369.01 0.29 0.0	#for buck, A and ro and C
pair_coeff 2 2 buck 1171.52 0.29 0.0
pair_coeff 3 3 buck 452.5051 0.29 0.0
pair_coeff 4 4 buck 21.228 0.35 0.0
pair_coeff 1 2 buck 1382.4811 0.29 0.0
pair_coeff 1 3 buck 3557.62 0.29 0.0
pair_coeff 2 3 buck 1848.7174 0.29 0.0
pair_coeff 3 4 buck 248.6324 0.29 0.0
pair_coeff 2 4 buck 430.6566 0.29 0.0
pair_coeff * * coul/long
pair_coeff * * sw potential.sw NULL Si O NULL

# Performing the simulation (Here to add)
neighbor 2.0 bin
neigh_modify every 1 delay 0 check yes

#equilibrate
min_style cg
thermo 5
minimize 1.0e-4 1.0e-6 120 1000
Ewald initialization ...
  G vector (1/distance) = 1.03681
  estimated absolute RMS force accuracy = 0.00186845
  estimated relative force accuracy = 0.000129757
  KSpace vectors: actual max1d max3d = 73118 42 307062
                  kxmax kymax kzmax  = 25 31 42
  update every 1 steps, delay 0 steps, check yes
Step Temp E_pair E_mol TotEng Press
0    298.50225   -53545.787            0   -53479.151    78.520682
Loop time of 0.714581 on 12 procs for 4 steps with 1728 atoms

Minimization stats:
  Stopping criterion = energy tolerance
  Energy initial, next-to-last, final =
  Force two-norm initial, final = 76.5155 23.2958
  Force max component initial, final = 5.22493 2.5512
  Final line search alpha, max atom move = 0.0420598 0.107303
  Iterations, force evaluations = 4 8

# 300-NPT
#velocity all create 300.0 5812775
# fix 1 all npt 300.0 300.0 0.001 xyz 0.0 0.0 1.0 drag 1.0
#fix 1 all npt temp 300.0 300.0 0.001 aniso 0.0 0.0 0.005 drag 2.0
#thermo 1000
#thermo_style custom step temp etotal press vol
#thermo_modify flush yes
#dump 2 all custom 1000 equlibration.csh id type x y z
#timestep 0.0001
#run 10000
#unfix 1
# Deform
# ------
fix 3 all deform 1 x erate -0.0008
compute deftemp all temp/deform
compute 4 all pressure deftemp
thermo 1000
thermo_style custom step temp etotal pxx pyy pzz press vol lx ly lz
dump 3 all custom 1000 Com_x.csh id type x y z
reset_timestep 0
timestep 0.0001
run 500000
Ewald initialization ...
  G vector (1/distance) = 1.03681
  estimated absolute RMS force accuracy = 0.00186845
  estimated relative force accuracy = 0.000129757
  KSpace vectors: actual max1d max3d = 73118 42 307062
                  kxmax kymax kzmax  = 25 31 42
  update every 1 steps, delay 0 steps, check yes
Step Temp TotEng Pxx Pyy Pzz Press Volume Lx Ly Lz
0    298.50225   -53527.867    -2175.615   -1909.8733   -1227.6556    -1771.048    29223.217    23.550134    30.062533     41.27709
Averages over the last 251 of 501 rows, steps 250000 to 500000:
Temp TotEng Pxx Pyy Pzz Press Volume Lx Ly Lz
298.502 -53488.8 127636 37928.1 38856.4 68140.1 28346.5 22.8436 30.0625 41.2771
Loop time of 44427.5 on 12 procs for 500000 steps with 1728 atoms

write_data data.cement2
Ewald initialization ...
  G vector (1/distance) = 1.0379
  estimated absolute RMS force accuracy = 0.00189934
  estimated relative force accuracy = 0.000131902
  KSpace vectors: actual max1d max3d = 70127 42 307062
                  kxmax kymax kzmax  = 24 31 42
  update every 1 steps, delay 0 steps, check yes
