LAMMPS (12 Dec 2018)
# Input file for Aluminium crystal

# Run command:  lmp -in in.aluminium

# ------------------------- ATOM INITIALIZATION -------------------------

units 			metal
dimension		3
boundary		p	p	p
atom_style		atomic

print "******************** Model initialized ********************"
******************** Model initialized ********************

# ------------------------- ATOM DEFINITION -------------------------

lattice			fcc 4.05
Lattice spacing in x,y,z = 4.05 4.05 4.05
region			whole block 0 30 0 30 0 30
region			crystal block 0 30 0 30 0 30
create_box		1 whole
Created orthogonal box = (0 0 0) to (121.5 121.5 121.5)
create_atoms	1 region crystal
Created 108000 atoms
  Time spent = 0.00892401 secs

print "******************** Atoms generated ********************"
******************** Atoms generated ********************

# ------------------------- FORCE FIELDS / POTENTIAL -------------------------

pair_style		lj/cut 2.5
pair_coeff		* * .3920 2.62 2.5

# pair_style		eam/alloy
# pair_coeff		* * Al_Zhou04.eam.alloy Al

print "******************** Force field set ********************"
******************** Force field set ********************

# ------------------------- SETTINGS -------------------------

mass				1 26.982

thermo_style		custom step pe ke etotal temp press vol density cpu
thermo				100

dump			 	1 all custom 100 dump_loc_atom-108000_ts-10000 id type x y z

reset_timestep		0

# ------------------------- STEP 1: EQUILIBRATION -------------------------

print "******************** Equilibration at 300 K ********************"
******************** Equilibration at 300 K ********************

velocity 			all create 300.0 199 mom yes rot no dist gaussian

fix					equilibration all npt temp 300 300 0.1 iso 1 1 1 drag 0.2

timestep 			0.001

run					10000
  update every 1 steps, delay 10 steps, check yes
Step PotEng KinEng TotEng Temp Press Volume Density CPU
0            0    4187.9899    4187.9899          300    2493.9968    1793613.4     2.697852            0
Averages over the last 51 of 101 rows, steps 5000 to 10000:
PotEng KinEng TotEng Temp Press Volume Density
281.758 4353.94 4635.7 311.887 1568.09 6.13991e+06 0.811791
Loop time of 46.4956 on 2 procs for 10000 steps with 108000 atoms

unfix				equilibration

# ------------------------- STEP 2: INCREASE TEMPERATURE -------------------------

print "******************** Increasing temperature to 700 K ********************"
******************** Increasing temperature to 700 K ********************

neighbor			0.5 bin
neigh_modify		every 10 delay 0 check yes

velocity			all create 700.0 199 mom yes rot yes dist gaussian

fix					inc_temp all npt temp 700.0 700.0 0.1 iso 1 1 1 drag 0.2

timestep 			0.001

run 				10000
Step PotEng KinEng TotEng Temp Press Volume Density CPU
10000    192.69984    9771.9765    9964.6763          700    1678.4296      8043648    0.6015807            0
Averages over the last 51 of 101 rows, steps 15000 to 20000:
PotEng KinEng TotEng Temp Press Volume Density
157.448 9770.54 9927.99 699.897 749.066 1.76292e+07 0.280019
Loop time of 42.8853 on 2 procs for 10000 steps with 108000 atoms

unfix 				inc_temp

# ------------------------- BINDING FORCE FIELDS / POTENTIAL -------------------------

pair_style		lj/cut 10
pair_coeff		* * 3.920 2.62 10

# pair_style		eam/alloy
# pair_coeff		* * Al_Zhou04.eam.alloy Al

print "******************** Force field altered for binding ********************"
******************** Force field altered for binding ********************

# ------------------------- STEP 3a: NVE INTERACTION  -------------------------

print "******************** NVE interaction ********************"
******************** NVE interaction ********************

neighbor			0.5 bin
neigh_modify		every 10 delay 0 check yes

fix					nve all nve
fix					temp_rescale all temp/rescale 100 700 700 0.1 0.9

timestep 			0.001

run 				10000
Step PotEng KinEng TotEng Temp Press Volume Density CPU
20000   -197764.46    9755.0915   -188009.37    698.79047   -3266.4391     22157057   0.21839107            0
Averages over the last 51 of 101 rows, steps 25000 to 30000:
PotEng KinEng TotEng Temp Press Volume Density
-2.1573e+06 9993.23 -2.1473e+06 715.849 -191.23 2.21571e+07 0.218391
Loop time of 203.616 on 2 procs for 10000 steps with 108000 atoms

unfix 				temp_rescale
unfix 				nve

# ------------------------- STEP 3b: COOLING 700 - 600  -------------------------

print "******************** Decreasing temperature from 700 K to 600 K ********************"
******************** Decreasing temperature from 700 K to 600 K ********************

neighbor			0.5 bin
neigh_modify		every 10 delay 0 check yes

fix					2 all npt temp 600.0 600.0 0.1 iso 1 1 1 drag 0.2
fix					temp_rescale all temp/rescale 100 600 600 0.1 0.9

timestep 			0.001

run 				10000
Step PotEng KinEng TotEng Temp Press Volume Density CPU
30000   -2198241.5    9891.8911   -2188349.6    708.58989   -193.56816     22157057   0.21839107            0
Averages over the last 51 of 101 rows, steps 35000 to 40000:
PotEng KinEng TotEng Temp Press Volume Density
-2.26294e+06 8428.19 -2.25452e+06 603.74 -45.7617 1.95178e+07 0.248085
Loop time of 267.525 on 2 procs for 10000 steps with 108000 atoms

unfix 				temp_rescale
unfix 				2

# ------------------------- STEP 3c: COOLING 600 - 400 -------------------------

print "******************** Decreasing temperature from 600 K to 400 K ********************"
******************** Decreasing temperature from 600 K to 400 K ********************

neighbor			0.5 bin
neigh_modify		every 10 delay 0 check yes

fix					3 all npt temp 400.0 400.0 0.1 iso 1 1 1 drag 0.2
fix					temp_rescale all temp/rescale 100 400 400 0.1 0.9

timestep 			0.001

run 				10000
Step PotEng KinEng TotEng Temp Press Volume Density CPU
40000   -2282350.5    8439.8032   -2273910.7    604.57188   -58.675188     18670955   0.25916743            0
Averages over the last 51 of 101 rows, steps 45000 to 50000:
PotEng KinEng TotEng Temp Press Volume Density
-2.35287e+06 5658.42 -2.34721e+06 405.332 -131.255 1.57546e+07 0.307562
Loop time of 299.354 on 2 procs for 10000 steps with 108000 atoms

unfix 				temp_rescale
unfix 				3

# ------------------------- STEP 3d: COOLING 400 - 300 -------------------------

print "******************** Decreasing temperature from 400 K to 300 K ********************"
******************** Decreasing temperature from 400 K to 300 K ********************

neighbor			0.5 bin
neigh_modify		every 10 delay 0 check yes

fix					4 all npt temp 300.0 300.0 0.1 iso 1 1 1 drag 0.2
fix					temp_rescale all temp/rescale 100 300 300 0.1 0.9

timestep 			0.001

run 				10000	# 10000 or 15000
Step PotEng KinEng TotEng Temp Press Volume Density CPU
50000     -2378433    5671.4272   -2372761.6    406.26367   -168.83636     14767161      0.32768            0
Averages over the last 51 of 101 rows, steps 55000 to 60000:
PotEng KinEng TotEng Temp Press Volume Density
-2.4868e+06 4336.94 -2.48246e+06 310.67 -453.117 1.09298e+07 0.445294
Loop time of 354.87 on 2 procs for 10000 steps with 108000 atoms

unfix				temp_rescale
unfix 				4

# ------------------------- STEP 4: EQUILIBRATION 2 -------------------------

print "******************** Equilibration at 300 K ********************"
******************** Equilibration at 300 K ********************

fix					equilibration2 all nve
fix					temp_rescale all temp/rescale 100 300 300 0.1 0.9

timestep 			0.001

run					10000
Step PotEng KinEng TotEng Temp Press Volume Density CPU
60000   -2536727.3    4357.5315   -2532369.8    312.14484   -719.35271    9497707.5    0.5094812            0
Averages over the last 51 of 101 rows, steps 65000 to 70000:
PotEng KinEng TotEng Temp Press Volume Density
-2.65555e+06 4304.23 -2.65124e+06 308.327 -269.847 9.49771e+06 0.509481
Loop time of 429.842 on 2 procs for 10000 steps with 108000 atoms

unfix				temp_rescale
unfix				equilibration2

# ------------------------- STEP 5: INSTANTANEOUS EXPANSION/CONTRACTION -------------------------

# print "******************** Instantaneous contraction to required density ********************"
# timestep			0.0005
# fix					inst2 all nvt temp 300 300 0.05
# fix					inst1 all deform 1 x scale 0.79 y scale 0.79 z scale 0.79
# run					1000
# unfix				inst1
# unfix				inst2

# ------------------------- STEP 6: EQUILIBRATION 3 -------------------------

# print "******************** Equilibration at 300 K ********************"

# fix					equilibration3 all nve
# fix					temp_rescale all temp/rescale 100 300 300 0.1 0.9

# timestep 			0.001

# run					10000

# unfix				temp_rescale
# unfix				equilibration3

# ------------------------- STEP 7: MINIMIZATION -------------------------

print "******************** Energy minimization ********************"
******************** Energy minimization ********************

minimize 			0.01 0 1000 1000	# What does the last 1000 refer to?
Step PotEng KinEng TotEng Temp Press Volume Density CPU
70000   -2681632.8    4283.4028   -2677349.4    306.83475   -16.844865    9497707.5    0.5094812            0
Loop time of 0.231004 on 2 procs for 1 steps with 108000 atoms

Minimization stats:
  Stopping criterion = energy tolerance
  Energy initial, next-to-last, final =
  Force two-norm initial, final = 1093.77 569.268
  Force max component initial, final = 28.9462 18.5354
  Final line search alpha, max atom move = 0.00345468 0.0640338
  Iterations, force evaluations = 1 1

min_style			cg

# ------------------------- SIMULATION DONE -------------------------

print "******************** End ********************"
******************** End ********************
1
