LAMMPS (12 Dec 2018)
# Input file for Aluminium crystal

# Run command:  lmp -in in.aluminium

# ------------------------- ATOM INITIALIZATION -------------------------

units 			metal
dimension		3
boundary		p	p	p
atom_style		atomic

print "******************** Model initialized ********************"
******************** Model initialized ********************

# ------------------------- ATOM DEFINITION -------------------------

lattice			fcc 4.05
Lattice spacing in x,y,z = 4.05 4.05 4.05
region			whole block 0 30 0 30 0 30
region			crystal block 0 30 0 30 0 30
create_box		1 whole
Created orthogonal box = (0 0 0) to (121.5 121.5 121.5)
create_atoms	1 region crystal
Created 108000 atoms
  Time spent = 0.00893211 secs

print "******************** Atoms generated ********************"
******************** Atoms generated ********************

# ------------------------- FORCE FIELDS / POTENTIAL -------------------------

pair_style		lj/cut 2.5
pair_coeff		* * .3920 2.62 2.5

# pair_style		eam/alloy
# pair_coeff		* * Al_Zhou04.eam.alloy Al

print "******************** Force field set ********************"
******************** Force field set ********************

# ------------------------- SETTINGS -------------------------

mass				1 26.982

thermo_style		custom step pe ke etotal temp press vol density cpu
thermo				100

dump			 	1 all custom 100 dump_loc_atom-108000_ts-8000 id type x y z

reset_timestep		0

# ------------------------- STEP 1: EQUILIBRATION -------------------------

print "******************** Equilibration at 300 K ********************"
******************** Equilibration at 300 K ********************

velocity 			all create 300.0 199 mom yes rot no dist gaussian

fix					equilibration all npt temp 300 300 0.1 iso 1 1 1 drag 0.2

timestep 			0.001

run					10000
  update every 1 steps, delay 10 steps, check yes
Step PotEng KinEng TotEng Temp Press Volume Density CPU
0            0    4187.9899    4187.9899          300    2493.9968    1793613.4     2.697852            0
Averages over the last 51 of 101 rows, steps 5000 to 10000:
PotEng KinEng TotEng Temp Press Volume Density
281.758 4353.94 4635.7 311.887 1568.09 6.13991e+06 0.811791
Loop time of 43.6537 on 2 procs for 10000 steps with 108000 atoms

unfix				equilibration

# ------------------------- STEP 2: INCREASE TEMPERATURE -------------------------

print "******************** Increasing temperature to 700 K ********************"
******************** Increasing temperature to 700 K ********************

neighbor			0.5 bin
neigh_modify		every 10 delay 0 check yes

velocity			all create 700.0 199 mom yes rot yes dist gaussian

fix					inc_temp all npt temp 700.0 700.0 0.1 iso 1 1 1 drag 0.2

timestep 			0.001

run 				10000
Step PotEng KinEng TotEng Temp Press Volume Density CPU
10000    192.69984    9771.9765    9964.6763          700    1678.4296      8043648    0.6015807            0
Averages over the last 51 of 101 rows, steps 15000 to 20000:
PotEng KinEng TotEng Temp Press Volume Density
157.448 9770.54 9927.99 699.897 749.066 1.76292e+07 0.280019
Loop time of 43.8123 on 2 procs for 10000 steps with 108000 atoms

unfix 				inc_temp

# ------------------------- BINDING FORCE FIELDS / POTENTIAL -------------------------

pair_style		lj/cut 10
pair_coeff		* * 3.920 2.62 10

# pair_style		eam/alloy
# pair_coeff		* * Al_Zhou04.eam.alloy Al

print "******************** Force field altered for binding ********************"
******************** Force field altered for binding ********************

# ------------------------- STEP 3: NVE INTERACTION  -------------------------

print "******************** NVE interaction ********************"
******************** NVE interaction ********************

neighbor			0.5 bin
neigh_modify		every 10 delay 0 check yes

fix					nve all nve
fix					temp_rescale all temp/rescale 100 700 700 0.1 0.9

timestep 			0.001

run 				10000
Step PotEng KinEng TotEng Temp Press Volume Density CPU
20000   -197764.46    9755.0915   -188009.37    698.79047   -3266.4391     22157057   0.21839107            0
Averages over the last 51 of 101 rows, steps 25000 to 30000:
PotEng KinEng TotEng Temp Press Volume Density
-2.1573e+06 9993.23 -2.1473e+06 715.849 -191.23 2.21571e+07 0.218391
Loop time of 210.177 on 2 procs for 10000 steps with 108000 atoms

unfix 				temp_rescale
unfix 				nve

# ------------------------- STEP 4a: COOLING 700 - 600  -------------------------

print "******************** Decreasing temperature from 700 K to 600 K ********************"
******************** Decreasing temperature from 700 K to 600 K ********************

neighbor			0.5 bin
neigh_modify		every 10 delay 0 check yes

fix					2 all npt temp 600.0 600.0 0.1 iso 1 1 1 drag 0.2
fix					temp_rescale all temp/rescale 100 600 600 0.1 0.9

timestep 			0.001

run 				8000
Step PotEng KinEng TotEng Temp Press Volume Density CPU
30000   -2198241.5    9891.8911   -2188349.6    708.58989   -193.56816     22157057   0.21839107            0
Averages over the last 41 of 81 rows, steps 34000 to 38000:
PotEng KinEng TotEng Temp Press Volume Density
-2.25204e+06 8425.61 -2.24362e+06 603.555 -35.4538 2.00196e+07 0.241792
Loop time of 218.512 on 2 procs for 8000 steps with 108000 atoms

unfix 				temp_rescale
unfix 				2

# ------------------------- STEP 4b: COOLING 600 - 400 -------------------------

print "******************** Decreasing temperature from 600 K to 400 K ********************"
******************** Decreasing temperature from 600 K to 400 K ********************

neighbor			0.5 bin
neigh_modify		every 10 delay 0 check yes

fix					3 all npt temp 400.0 400.0 0.1 iso 1 1 1 drag 0.2
fix					temp_rescale all temp/rescale 100 400 400 0.1 0.9

timestep 			0.001

run 				8000
Step PotEng KinEng TotEng Temp Press Volume Density CPU
38000   -2265849.7    8425.6552     -2257424    603.55842   -55.117192     19371735   0.24979195            0
Averages over the last 41 of 81 rows, steps 42000 to 46000:
PotEng KinEng TotEng Temp Press Volume Density
-2.31777e+06 5656.02 -2.31212e+06 405.16 -102.648 1.70117e+07 0.284659
Loop time of 238.673 on 2 procs for 8000 steps with 108000 atoms

unfix 				temp_rescale
unfix 				3

# ------------------------- STEP 4c: COOLING 400 - 300 -------------------------

print "******************** Decreasing temperature from 400 K to 300 K ********************"
******************** Decreasing temperature from 400 K to 300 K ********************

neighbor			0.5 bin
neigh_modify		every 10 delay 0 check yes

fix					4 all npt temp 300.0 300.0 0.1 iso 1 1 1 drag 0.2
fix					temp_rescale all temp/rescale 100 300 300 0.1 0.9

timestep 			0.001

run 				8000	# 10000 or 15000
Step PotEng KinEng TotEng Temp Press Volume Density CPU
46000   -2338343.6    5653.2784   -2332690.3    404.96361   -299.41191     16215334   0.29841528            0
Averages over the last 41 of 81 rows, steps 50000 to 54000:
PotEng KinEng TotEng Temp Press Volume Density
-2.40563e+06 4294.74 -2.40134e+06 307.647 -294.295 1.33599e+07 0.363031
Loop time of 269.971 on 2 procs for 8000 steps with 108000 atoms

unfix				temp_rescale
unfix 				4

# ------------------------- STEP 5: EQUILIBRATION 2 -------------------------

print "******************** Equilibration at 300 K ********************"
******************** Equilibration at 300 K ********************

fix					equilibration2 all nve
fix					temp_rescale all temp/rescale 100 300 300 0.1 0.9

timestep 			0.001

run					10000
Step PotEng KinEng TotEng Temp Press Volume Density CPU
54000   -2435386.2     4323.825   -2431062.3    309.73033   -345.87369     12253156   0.39491078            0
Averages over the last 51 of 101 rows, steps 59000 to 64000:
PotEng KinEng TotEng Temp Press Volume Density
-2.52845e+06 4274.32 -2.52417e+06 306.184 -44.6287 1.22532e+07 0.394911
Loop time of 387.893 on 2 procs for 10000 steps with 108000 atoms

unfix				temp_rescale
unfix				equilibration2

# ------------------------- STEP : INSTANTANEOUS EXPANSION/CONTRACTION -------------------------

# print "******************** Instantaneous contraction to required density ********************"
# timestep			0.0005
# fix				inst2 all nvt temp 300 300 0.05
# fix				inst1 all deform 1 x scale 0.79 y scale 0.79 z scale 0.79
# run				1000
# unfix				inst1
# unfix				inst2

# ------------------------- STEP : EQUILIBRATION 3 -------------------------

# print "******************** Equilibration at 300 K ********************"

# fix				equilibration3 all nve
# fix				temp_rescale all temp/rescale 100 300 300 0.1 0.9

# timestep 			0.001

# run				10000

# unfix				temp_rescale
# unfix				equilibration3

# ------------------------- STEP 6: MINIMIZATION -------------------------

print "******************** Energy minimization ********************"
******************** Energy minimization ********************

minimize 			0.01 0 1000 1000	# What does the last 1000 refer to?
Step PotEng KinEng TotEng Temp Press Volume Density CPU
64000   -2547671.2    4277.3131   -2543393.8    306.39852   -36.095694     12253156   0.39491078            0
Loop time of 0.19981 on 2 procs for 1 steps with 108000 atoms

Minimization stats:
  Stopping criterion = energy tolerance
  Energy initial, next-to-last, final =
  Force two-norm initial, final = 1118.55 599.056
  Force max component initial, final = 27.8368 29.1738
  Final line search alpha, max atom move = 0.00359237 0.104803
  Iterations, force evaluations = 1 1

min_style			cg

# ------------------------- SIMULATION DONE -------------------------

print "******************** End ********************"
******************** End ********************
