LAMMPS (12 Dec 2018)
# Input file for Aluminium crystal

# Run command:  lmp -in in.aluminium

# ------------------------- ATOM INITIALIZATION -------------------------

units 			metal
dimension		3
boundary		p	p	p
atom_style		atomic

print "******************** Model initialized ********************"
******************** Model initialized ********************

# ------------------------- ATOM DEFINITION -------------------------

lattice			fcc 4.05
Lattice spacing in x,y,z = 4.05 4.05 4.05
region			whole block 0 30 0 30 0 30
region			crystal block 0 30 0 30 0 30
create_box		1 whole
Created orthogonal box = (0 0 0) to (121.5 121.5 121.5)
create_atoms	1 region crystal
Created 108000 atoms
  Time spent = 0.00921202 secs

print "******************** Atoms generated ********************"
******************** Atoms generated ********************

# ------------------------- FORCE FIELDS / POTENTIAL -------------------------

pair_style		lj/cut 2.5
pair_coeff		* * .3920 2.62 2.5

# pair_style		eam/alloy
# pair_coeff		* * Al_Zhou04.eam.alloy Al

print "******************** Force field set ********************"
******************** Force field set ********************

# ------------------------- SETTINGS -------------------------

mass				1 26.982

thermo_style		custom step pe ke etotal temp press vol density cpu
thermo				1000
dump			 	1 all custom 100 dump_loc_atom-108000_ts-12000 id type x y z

reset_timestep		0

# ------------------------- STEP 1: EQUILIBRATION -------------------------

print "******************** Equilibration at 300 K ********************"
******************** Equilibration at 300 K ********************

velocity 			all create 300.0 199 mom yes rot no dist gaussian

fix					equilibration all npt temp 300 300 0.1 iso 1 1 1 drag 0.2

timestep 			0.001

run					10000
  update every 1 steps, delay 10 steps, check yes
Step PotEng KinEng TotEng Temp Press Volume Density CPU
0            0    4187.9899    4187.9899          300    2493.9968    1793613.4     2.697852            0
Averages over the last 6 of 11 rows, steps 5000 to 10000:
PotEng KinEng TotEng Temp Press Volume Density
286.919 4359.12 4646.04 312.259 1603.91 6.16154e+06 0.817339
Loop time of 44.3885 on 2 procs for 10000 steps with 108000 atoms

unfix				equilibration

# ------------------------- STEP 2: INCREASE TEMPERATURE -------------------------

print "******************** Increasing temperature to 700 K ********************"
******************** Increasing temperature to 700 K ********************

neighbor			0.5 bin
neigh_modify		every 10 delay 0 check yes

velocity			all create 700.0 199 mom yes rot yes dist gaussian

fix					inc_temp all npt temp 700.0 700.0 0.1 iso 1 1 1 drag 0.2

timestep 			0.001

run 				10000
Step PotEng KinEng TotEng Temp Press Volume Density CPU
10000    192.69984    9771.9765    9964.6763          700    1678.4296      8043648    0.6015807            0
Averages over the last 6 of 11 rows, steps 15000 to 20000:
PotEng KinEng TotEng Temp Press Volume Density
156.56 9767.34 9923.9 699.668 752.299 1.76842e+07 0.281082
Loop time of 41.8507 on 2 procs for 10000 steps with 108000 atoms

unfix 				inc_temp

# ------------------------- BINDING FORCE FIELDS / POTENTIAL -------------------------

pair_style		lj/cut 10
pair_coeff		* * 3.920 2.62 10

# pair_style		eam/alloy
# pair_coeff		* * Al_Zhou04.eam.alloy Al

print "******************** Force field altered for binding ********************"
******************** Force field altered for binding ********************

# ------------------------- STEP 3: NVE INTERACTION  -------------------------

print "******************** NVE interaction ********************"
******************** NVE interaction ********************

neighbor			0.5 bin
neigh_modify		every 10 delay 0 check yes

fix					nve all nve
fix					temp_rescale all temp/rescale 100 700 700 0.1 0.9

timestep 			0.001

run 				10000
Step PotEng KinEng TotEng Temp Press Volume Density CPU
20000   -197764.46    9755.0915   -188009.37    698.79047   -3266.4391     22157057   0.21839107            0
Averages over the last 6 of 11 rows, steps 25000 to 30000:
PotEng KinEng TotEng Temp Press Volume Density
-2.1555e+06 10002.3 -2.1455e+06 716.499 -174.379 2.21571e+07 0.218391
Loop time of 210.778 on 2 procs for 10000 steps with 108000 atoms

unfix 				temp_rescale
unfix 				nve

# ------------------------- STEP 4a: COOLING 700 - 600  -------------------------

print "******************** Decreasing temperature from 700 K to 600 K ********************"
******************** Decreasing temperature from 700 K to 600 K ********************

neighbor			0.5 bin
neigh_modify		every 10 delay 0 check yes

fix					2 all npt temp 600.0 600.0 0.1 iso 1 1 1 drag 0.2
fix					temp_rescale all temp/rescale 100 600 600 0.1 0.9

timestep 			0.001

run 				12000
Step PotEng KinEng TotEng Temp Press Volume Density CPU
30000   -2198241.5    9891.8911   -2188349.6    708.58989   -193.56816     22157057   0.21839107            0
Averages over the last 7 of 13 rows, steps 36000 to 42000:
PotEng KinEng TotEng Temp Press Volume Density
-2.27506e+06 8429.96 -2.26663e+06 603.867 -54.0759 1.90232e+07 0.254697
Loop time of 333.483 on 2 procs for 12000 steps with 108000 atoms

unfix 				temp_rescale
unfix 				2

# ------------------------- STEP 4b: COOLING 600 - 400 -------------------------

print "******************** Decreasing temperature from 600 K to 400 K ********************"
******************** Decreasing temperature from 600 K to 400 K ********************

neighbor			0.5 bin
neigh_modify		every 10 delay 0 check yes

fix					3 all npt temp 400.0 400.0 0.1 iso 1 1 1 drag 0.2
fix					temp_rescale all temp/rescale 100 400 400 0.1 0.9

timestep 			0.001

run 				12000
Step PotEng KinEng TotEng Temp Press Volume Density CPU
42000   -2300933.3     8433.262     -2292500    604.10331   -20.508901     18019946    0.2685304            0
Averages over the last 7 of 13 rows, steps 48000 to 54000:
PotEng KinEng TotEng Temp Press Volume Density
-2.38873e+06 5669.61 -2.38306e+06 406.133 -147.984 1.45495e+07 0.333604
Loop time of 385.293 on 2 procs for 12000 steps with 108000 atoms

unfix 				temp_rescale
unfix 				3

# ------------------------- STEP 4c: COOLING 400 - 300 -------------------------

print "******************** Decreasing temperature from 400 K to 300 K ********************"
******************** Decreasing temperature from 400 K to 300 K ********************

neighbor			0.5 bin
neigh_modify		every 10 delay 0 check yes

fix					4 all npt temp 300.0 300.0 0.1 iso 1 1 1 drag 0.2
fix					temp_rescale all temp/rescale 100 300 300 0.1 0.9

timestep 			0.001

run 				12000	# 10000 or 15000
Step PotEng KinEng TotEng Temp Press Volume Density CPU
54000   -2426483.2    5673.9404   -2420809.2     406.4437   -248.94916     13312613   0.36348261            0
Averages over the last 7 of 13 rows, steps 60000 to 66000:
PotEng KinEng TotEng Temp Press Volume Density
-2.57768e+06 4396.92 -2.57329e+06 314.966 -1012.75 8.56099e+06 0.579541
Loop time of 491.106 on 2 procs for 12000 steps with 108000 atoms

unfix				temp_rescale
unfix 				4

# ------------------------- STEP 5: EQUILIBRATION 2 -------------------------

print "******************** Equilibration at 300 K ********************"
******************** Equilibration at 300 K ********************

fix					equilibration2 all nve
fix					temp_rescale all temp/rescale 100 300 300 0.1 0.9

timestep 			0.001

run					10000
Step PotEng KinEng TotEng Temp Press Volume Density CPU
66000   -2666033.4    4512.7609   -2661520.7    323.26446   -2186.0741      6446799   0.75059008            0
Averages over the last 6 of 11 rows, steps 71000 to 76000:
PotEng KinEng TotEng Temp Press Volume Density
-2.84656e+06 4345.06 -2.84221e+06 311.252 -2145.56 6.4468e+06 0.75059
Loop time of 555.835 on 2 procs for 10000 steps with 108000 atoms

unfix				temp_rescale
unfix				equilibration2

# ------------------------- STEP : INSTANTANEOUS EXPANSION/CONTRACTION -------------------------

# print "******************** Instantaneous contraction to required density ********************"
# timestep			0.0005
# fix				inst2 all nvt temp 300 300 0.05
# fix				inst1 all deform 1 x scale 0.79 y scale 0.79 z scale 0.79
# run				1000
# unfix				inst1
# unfix				inst2

# ------------------------- STEP : EQUILIBRATION 3 -------------------------

# print "******************** Equilibration at 300 K ********************"

# fix				equilibration3 all nve
# fix				temp_rescale all temp/rescale 100 300 300 0.1 0.9

# timestep 			0.001

# run				10000

# unfix				temp_rescale
# unfix				equilibration3

# ------------------------- STEP 6: MINIMIZATION -------------------------

print "******************** Energy minimization ********************"
******************** Energy minimization ********************

minimize 			0.01 0 1000 1000	# What does the last 1000 refer to?
Step PotEng KinEng TotEng Temp Press Volume Density CPU
76000   -2884789.9    4341.6223   -2880448.3    311.00521   -2354.1638      6446799   0.75059008            0
Loop time of 0.263014 on 2 procs for 1 steps with 108000 atoms

Minimization stats:
  Stopping criterion = energy tolerance
  Energy initial, next-to-last, final =
  Force two-norm initial, final = 1030.22 572.071
  Force max component initial, final = 26.7165 33.5696
  Final line search alpha, max atom move = 0.003743 0.125651
  Iterations, force evaluations = 1 1

min_style			cg

# ------------------------- SIMULATION DONE -------------------------

print "******************** End ********************"
******************** End ********************
