LAMMPS (12 Dec 2018)
# Configuration File to perform equilibrium
units		metal	# Definition of used Units
dimension	3	# Definition of used dimensions
processors	* * *	# Allowance to use the processors the simulations thinks to need
boundary	p p p	# Definition of boundary conditions

pair_style hybrid/overlay buck 3.0 sw coul/long 3.0 lj/cut 5.0 airebo 3.0
kspace_style ewald 0.0001 #how to calculate long-range coulomb interaction
# Definition of Attributes for the Atoms in the data-file, reading data
atom_style  full # molecular+charge
read_data   data.cement1   # Read specific data-file
  orthogonal box = (3.96585 7.8505 0.102119) to (37.0341 38.1495 45.8979)
  reading atoms ...
  2108 atoms
  reading velocities ...
  2108 velocities

# interaction styles (Here to add)
pair_coeff 1 1 buck 4369.01 0.29 0.0	#for buck, A and ro and C
pair_coeff 2 2 buck 1171.52 0.29 0.0
pair_coeff 3 3 buck 452.5051 0.29 0.0
pair_coeff 4 4 buck 21.228 0.35 0.0
pair_coeff 1 2 buck 1382.4811 0.29 0.0
pair_coeff 1 3 buck 3557.62 0.29 0.0
pair_coeff 2 3 buck 1848.7174 0.29 0.0
pair_coeff 3 4 buck 248.6324 0.29 0.0
pair_coeff 2 4 buck 430.6566 0.29 0.0
pair_coeff 5 5 lj/cut 0.0537 2.8	# C (27 K = 0.0537 kcal/mol, energy units; distance units)
pair_coeff 1 5 lj/cut 0.0000228325 4.480
pair_coeff 2 5 lj/cut 0.0000138095 3.351
pair_coeff 3 5 lj/cut 0.00401324 3.282
pair_coeff * * airebo CH.airebo NULL NULL NULL H C
Reading potential file CH.airebo with DATE: 2011-10-25
pair_coeff * * coul/long
pair_coeff * * sw potential.sw NULL Si O NULL NULL

velocity all create 100.0 53244 dist gaussian mom no rot no

# Definition of the different groups
group clump1 id <> 1728 2108
381 atoms in group clump1

# Fix assigned to the groups
fix 111 clump1 rigid/nve single
1 rigid bodies with 381 atoms

# Performing the simulation (Here to add)
neighbor 2.0 bin
neigh_modify every 1 delay 0 check yes
#equilibrate
min_style cg
thermo 5
minimize 1.0e-4 1.0e-6 120 1000
Ewald initialization ...
  G vector (1/distance) = 1.01925
  estimated absolute RMS force accuracy = 0.00175956
  estimated relative force accuracy = 0.000122195
  KSpace vectors: actual max1d max3d = 104228 45 376785
                  kxmax kymax kzmax  = 34 31 45
  update every 1 steps, delay 0 steps, check yes
Step Temp E_pair E_mol TotEng Press
0    121.93287    -53431.53            0   -53404.294    21850.014
Loop time of 1.45802 on 12 procs for 6 steps with 2108 atoms

Minimization stats:
  Stopping criterion = energy tolerance
  Energy initial, next-to-last, final =
  Force two-norm initial, final = 90.7895 23.8348
  Force max component initial, final = 13.3417 3.73935
  Final line search alpha, max atom move = 0.0308247 0.115264
  Iterations, force evaluations = 6 11

# 300-NPT
#velocity all create 300.0 5812775
# fix 1 all npt 300.0 300.0 0.001 xyz 0.0 0.0 1.0 drag 1.0
#fix 1 all npt temp 300.0 300.0 0.001 aniso 0.0 0.0 0.005 drag 2.0
#thermo 1000
#thermo_style custom step temp etotal press vol
#thermo_modify flush yes
#dump 2 all custom 1000 equlibration.csh id type x y z
#timestep 0.0001
#run 10000
#unfix 1
# Deform
# ------
fix 3 all deform 1 z erate -0.0008
compute deftemp all temp/deform
compute 4 all pressure deftemp
thermo 1000
thermo_style custom step temp etotal pxx pyy pzz press vol lx ly lz
dump 3 all custom 1000 com_z.csh id type x y z
reset_timestep 0
timestep 0.0001
run 500000
Ewald initialization ...
  G vector (1/distance) = 1.01925
  estimated absolute RMS force accuracy = 0.00175956
  estimated relative force accuracy = 0.000122195
  KSpace vectors: actual max1d max3d = 104228 45 376785
                  kxmax kymax kzmax  = 34 31 45
  update every 1 steps, delay 0 steps, check yes
Step Temp TotEng Pxx Pyy Pzz Press Volume Lx Ly Lz
0    100.32237   -53477.437   -96982.849   -57035.097   -202083.17   -118700.37    45884.427    33.068292    30.298998    45.795762
Averages over the last 251 of 501 rows, steps 250000 to 500000:
Temp TotEng Pxx Pyy Pzz Press Volume Lx Ly Lz
104.374 -44886.7 34706.5 32143.9 8.87656e+07 2.96108e+07 44507.9 33.0683 30.299 44.4219
Loop time of 55602.3 on 12 procs for 500000 steps with 2108 atoms

write_data data.cement2
Ewald initialization ...
  G vector (1/distance) = 1.02036
  estimated absolute RMS force accuracy = 0.00182011
  estimated relative force accuracy = 0.0001264
  KSpace vectors: actual max1d max3d = 100046 43 329251
                  kxmax kymax kzmax  = 34 31 43
  update every 1 steps, delay 0 steps, check yes
